run/python/linked2_federates/test.glm
clock {
  timezone PST+8PDT;
  starttime '2013-07-01 00:00:00';
  stoptime '2013-07-03 00:00:00';
}
#set profiler=1
module tape;
module powerflow {
    solver_method FBS;
    NR_iteration_limit 100;
}

module climate;
module generators;
module connection;
module residential {
  implicit_enduses NONE;
}
#include "${TESPDIR}/data/schedules/appliance_schedules.glm";
#include "${TESPDIR}/data/schedules/water_and_setpoint_schedule_v5.glm";
#include "${TESPDIR}/data/schedules/commercial_schedules.glm";
#set minimum_timestep=15;
#set relax_naming_rules=1;
#set warn=0;
object metrics_collector_writer {
  interval 300;
  interim 7200;
  filename ${METRICS_FILE};
}
object climate {
  name localWeather;
  // tmyfile "WA-Yakima_Air_Terminal.tmy3";
  interpolate QUADRATIC;
  latitude 32.133;
  longitude -110.95;
  // altitude 777.0;
  tz_meridian -105.0;
}
#ifdef WANT_VI_DUMP
object voltdump {
  filename Voltage_Dump_test.csv;
}
object currdump {
  filename Current_Dump_test.csv;
}
#endif // &&& end of common section for combining TESP cases
object transformer_configuration {
  name Fdr1_XF1_PADMOUNT_AS_5000p0;
  power_rating 5000.00;
  powerA_rating 5000.00;
  powerB_rating 0.0;
  powerC_rating 0.0;
  install_type PADMOUNT;
  connect_type SINGLE_PHASE_CENTER_TAPPED;
  primary_voltage 7200.0;
  secondary_voltage 120.0;
  resistance 0.00500;
  resistance1 0.01000;
  resistance2 0.01000;
  reactance 0.04800;
  reactance1 0.02400;
  reactance2 0.02400;
  shunt_resistance 200.00;
  shunt_reactance 100.00;
}
object transformer_configuration {
  name Fdr1_XF1_PADMOUNT_BS_5000p0;
  power_rating 5000.00;
  powerA_rating 0.0;
  powerB_rating 5000.00;
  powerC_rating 0.0;
  install_type PADMOUNT;
  connect_type SINGLE_PHASE_CENTER_TAPPED;
  primary_voltage 7200.0;
  secondary_voltage 120.0;
  resistance 0.00500;
  resistance1 0.01000;
  resistance2 0.01000;
  reactance 0.04800;
  reactance1 0.02400;
  reactance2 0.02400;
  shunt_resistance 200.00;
  shunt_reactance 100.00;
}
object transformer_configuration {
  name Fdr1_XF1_PADMOUNT_CS_5000p0;
  power_rating 5000.00;
  powerA_rating 0.0;
  powerB_rating 0.0;
  powerC_rating 5000.00;
  install_type PADMOUNT;
  connect_type SINGLE_PHASE_CENTER_TAPPED;
  primary_voltage 7200.0;
  secondary_voltage 120.0;
  resistance 0.00500;
  resistance1 0.01000;
  resistance2 0.01000;
  reactance 0.04800;
  reactance1 0.02400;
  reactance2 0.02400;
  shunt_resistance 200.00;
  shunt_reactance 100.00;
}
object triplex_line_conductor {
  name Fdr1_triplex_4/0_aa;
  resistance 0.48;
  geometric_mean_radius 0.0158;
  rating.summer.continuous 1000.0;
  rating.summer.emergency 1000.0;
  rating.winter.continuous 1000.0;
  rating.winter.emergency 1000.0;
}
object triplex_line_configuration {
  name Fdr1_tpx_config;
  conductor_1 Fdr1_triplex_4/0_aa;
  conductor_2 Fdr1_triplex_4/0_aa;
  conductor_N Fdr1_triplex_4/0_aa;
  insulation_thickness 0.08;
  diameter 0.522;
}
object transformer {
  name Fdr1_Service_A;
// downstream 4000.00 kva on AS
  phases AS;
  from Fdr1_Feeder_head;
  to Fdr1_Houses_A;
  configuration Fdr1_XF1_PADMOUNT_AS_5000p0;
}
object transformer {
  name Fdr1_Service_B;
// downstream 4000.00 kva on BS
  phases BS;
  from Fdr1_Feeder_head;
  to Fdr1_Houses_B;
  configuration Fdr1_XF1_PADMOUNT_BS_5000p0;
}
object transformer {
  name Fdr1_Service_C;
// downstream 4000.00 kva on CS
  phases CS;
  from Fdr1_Feeder_head;
  to Fdr1_Houses_C;
  configuration Fdr1_XF1_PADMOUNT_CS_5000p0;
}
object triplex_node {
  name Fdr1_Houses_A;
  phases AS;
  nominal_voltage 120.0;
  voltage_1 120.0+0.0j;
  voltage_2 120.0+0.0j;
}
object triplex_line {
  name Fdr1_Houses_A_tpx_1;
  from Fdr1_Houses_A;
  to Fdr1_Houses_A_mtr_1;
  phases AS;
  length 30;
  configuration Fdr1_tpx_config;
}
object triplex_meter {
  name Fdr1_Houses_A_mtr_1;
  phases AS;
  meter_power_consumption 1+7j;
  bill_mode TIERED;
  price 0.1020;
  monthly_fee 13.00;
  bill_day 1;
  first_tier_energy 500.0;
  first_tier_price 0.117013;
  second_tier_energy 1000.0;
  second_tier_price 0.122513;
  nominal_voltage 120.0;
  voltage_1 120.0+0.0j;
  voltage_2 120.0+0.0j;
  object metrics_collector {
    interval 300;
  };
}
object triplex_meter {
  name Fdr1_Houses_A_mhse_1;
  parent Fdr1_Houses_A_mtr_1;
  phases AS;
  nominal_voltage 120.0;
}
object house {
  name Fdr1_Houses_A_hse_1;
  parent Fdr1_Houses_A_mhse_1;
  groupid SINGLE_FAMILY;
  // thermal_integrity_level VERY_GOOD;
  schedule_skew -149;
  floor_area 3378;
  number_of_stories 1;
  ceiling_height 9;
  over_sizing_factor 0.2973;
  Rroof 53.99;
  Rwall 27.78;
  Rfloor 28.71;
  glazing_layers 3;
  glass_type 2;
  glazing_treatment 2;
  window_frame 4;
  Rdoors 12.48;
  airchange_per_hour 0.23;
  cooling_COP 4.0;
  air_temperature 70.59;
  mass_temperature 70.59;
  total_thermal_mass_per_floor_area 3.052;
  breaker_amps 1000;
  hvac_breaker_rating 1000;
  heating_system_type GAS;
  cooling_system_type ELECTRIC;
  cooling_setpoint 80.0;
  heating_setpoint 60.0;
  object ZIPload { // responsive
    schedule_skew -149;
    base_power responsive_loads*1.26;
    heatgain_fraction 0.90;
    impedance_pf 1.00;
    current_pf 1.00;
    power_pf 1.00;
    impedance_fraction 0.20;
    current_fraction 0.40;
    power_fraction 0.40;
  };
  object ZIPload { // unresponsive
    schedule_skew -149;
    base_power unresponsive_loads*1.22;
    heatgain_fraction 0.90;
    impedance_pf 1.00;
    current_pf 1.00;
    power_pf 1.00;
    impedance_fraction 0.20;
    current_fraction 0.40;
    power_fraction 0.40;
  };
  object waterheater {
    name Fdr1_Houses_A_wh_1;
    schedule_skew -869;
    heating_element_capacity 4.5 kW;
    thermostat_deadband 6.3;
    location INSIDE;
    tank_diameter 1.5;
    tank_UA 2.0;
    water_demand large_4*1.01;
    tank_volume 30;
    tank_setpoint 117.3;
    object metrics_collector {
      interval 300;
    };
  };
  object metrics_collector {
    interval 300;
  };
}
object triplex_line {
  name Fdr1_Houses_A_tpx_2;
  from Fdr1_Houses_A;
  to Fdr1_Houses_A_mtr_2;
  phases AS;
  length 30;
  configuration Fdr1_tpx_config;
}
object triplex_meter {
  name Fdr1_Houses_A_mtr_2;
  phases AS;
  meter_power_consumption 1+7j;
  bill_mode TIERED;
  price 0.1020;
  monthly_fee 13.00;
  bill_day 1;
  first_tier_energy 500.0;
  first_tier_price 0.117013;
  second_tier_energy 1000.0;
  second_tier_price 0.122513;
  nominal_voltage 120.0;
  voltage_1 120.0+0.0j;
  voltage_2 120.0+0.0j;
  object metrics_collector {
    interval 300;
  };
}
object triplex_meter {
  name Fdr1_Houses_A_mhse_2;
  parent Fdr1_Houses_A_mtr_2;
  phases AS;
  nominal_voltage 120.0;
}
object house {
  name Fdr1_Houses_A_hse_2;
  parent Fdr1_Houses_A_mhse_2;
  groupid SINGLE_FAMILY;
  // thermal_integrity_level VERY_GOOD;
  schedule_skew -1046;
  floor_area 3853;
  number_of_stories 1;
  ceiling_height 9;
  over_sizing_factor 0.2779;
  Rroof 45.38;
  Rwall 28.79;
  Rfloor 29.26;
  glazing_layers 3;
  glass_type 2;
  glazing_treatment 2;
  window_frame 4;
  Rdoors 13.15;
  airchange_per_hour 0.21;
  cooling_COP 3.7;
  air_temperature 68.84;
  mass_temperature 68.84;
  total_thermal_mass_per_floor_area 2.742;
  breaker_amps 1000;
  hvac_breaker_rating 1000;
  heating_system_type GAS;
  cooling_system_type ELECTRIC;
  cooling_setpoint 80.0;
  heating_setpoint 60.0;
  object ZIPload { // responsive
    schedule_skew -1046;
    base_power responsive_loads*1.50;
    heatgain_fraction 0.90;
    impedance_pf 1.00;
    current_pf 1.00;
    power_pf 1.00;
    impedance_fraction 0.20;
    current_fraction 0.40;
    power_fraction 0.40;
  };
  object ZIPload { // unresponsive
    schedule_skew -1046;
    base_power unresponsive_loads*1.50;
    heatgain_fraction 0.90;
    impedance_pf 1.00;
    current_pf 1.00;
    power_pf 1.00;
    impedance_fraction 0.20;
    current_fraction 0.40;
    power_fraction 0.40;
  };
  object waterheater {
    name Fdr1_Houses_A_wh_2;
    schedule_skew -2449;
    heating_element_capacity 5.0 kW;
    thermostat_deadband 7.9;
    location INSIDE;
    tank_diameter 1.5;
    tank_UA 3.2;
    water_demand large_5*0.95;
    tank_volume 70;
    tank_setpoint 117.5;
    object metrics_collector {
      interval 300;
    };
  };
  object metrics_collector {
    interval 300;
  };
}
object triplex_line {
  name Fdr1_Houses_A_tpx_3;
  from Fdr1_Houses_A;
  to Fdr1_Houses_A_mtr_3;
  phases AS;
  length 30;
  configuration Fdr1_tpx_config;
}
object triplex_meter {
  name Fdr1_Houses_A_mtr_3;
  phases AS;
  meter_power_consumption 1+7j;
  bill_mode TIERED;
  price 0.1020;
  monthly_fee 13.00;
  bill_day 1;
  first_tier_energy 500.0;
  first_tier_price 0.117013;
  second_tier_energy 1000.0;
  second_tier_price 0.122513;
  nominal_voltage 120.0;
  voltage_1 120.0+0.0j;
  voltage_2 120.0+0.0j;
  object metrics_collector {
    interval 300;
  };
}
object triplex_meter {
  name Fdr1_Houses_A_mhse_3;
  parent Fdr1_Houses_A_mtr_3;
  phases AS;
  nominal_voltage 120.0;
}
object house {
  name Fdr1_Houses_A_hse_3;
  parent Fdr1_Houses_A_mhse_3;
  groupid SINGLE_FAMILY;
  // thermal_integrity_level VERY_GOOD;
  schedule_skew 462;
  floor_area 3824;
  number_of_stories 2;
  ceiling_height 9;
  over_sizing_factor 0.2513;
  Rroof 49.46;
  Rwall 32.81;
  Rfloor 27.82;
  glazing_layers 3;
  glass_type 2;
  glazing_treatment 2;
  window_frame 4;
  Rdoors 11.74;
  airchange_per_hour 0.21;
  cooling_COP 3.2;
  air_temperature 70.87;
  mass_temperature 70.87;
  total_thermal_mass_per_floor_area 2.934;
  breaker_amps 1000;
  hvac_breaker_rating 1000;
  heating_system_type HEAT_PUMP;
  heating_COP 3.2;
  cooling_system_type ELECTRIC;
  auxiliary_strategy DEADBAND;
  auxiliary_system_type ELECTRIC;
  motor_model BASIC;
  motor_efficiency AVERAGE;
  cooling_setpoint 80.0;
  heating_setpoint 60.0;
  object ZIPload { // responsive
    schedule_skew 462;
    base_power responsive_loads*1.51;
    heatgain_fraction 0.90;
    impedance_pf 1.00;
    current_pf 1.00;
    power_pf 1.00;
    impedance_fraction 0.20;
    current_fraction 0.40;
    power_fraction 0.40;
  };
  object ZIPload { // unresponsive
    schedule_skew 462;
    base_power unresponsive_loads*1.44;
    heatgain_fraction 0.90;
    impedance_pf 1.00;
    current_pf 1.00;
    power_pf 1.00;
    impedance_fraction 0.20;
    current_fraction 0.40;
    power_fraction 0.40;
  };
  object waterheater {
    name Fdr1_Houses_A_wh_3;
    schedule_skew -13978;
    heating_element_capacity 5.5 kW;
    thermostat_deadband 5.8;
    location INSIDE;
    tank_diameter 1.5;
    tank_UA 4.0;
    water_demand large_1*1.03;
    tank_volume 40;
    tank_setpoint 120.9;
    object metrics_collector {
      interval 300;
    };
  };
  object metrics_collector {
    interval 300;
  };
}
object triplex_line {
  name Fdr1_Houses_A_tpx_4;
  from Fdr1_Houses_A;
  to Fdr1_Houses_A_mtr_4;
  phases AS;
  length 30;
  configuration Fdr1_tpx_config;
}
object triplex_meter {
  name Fdr1_Houses_A_mtr_4;
  phases AS;
  meter_power_consumption 1+7j;
  bill_mode TIERED;
  price 0.1020;
  monthly_fee 13.00;
  bill_day 1;
  first_tier_energy 500.0;
  first_tier_price 0.117013;
  second_tier_energy 1000.0;
  second_tier_price 0.122513;
  nominal_voltage 120.0;
  voltage_1 120.0+0.0j;
  voltage_2 120.0+0.0j;
  object metrics_collector {
    interval 300;
  };
}
object triplex_meter {
  name Fdr1_Houses_A_mhse_4;
  parent Fdr1_Houses_A_mtr_4;
  phases AS;
  nominal_voltage 120.0;
}
object house {
  name Fdr1_Houses_A_hse_4;
  parent Fdr1_Houses_A_mhse_4;
  groupid SINGLE_FAMILY;
  // thermal_integrity_level VERY_GOOD;
  schedule_skew 4333;
  floor_area 3574;
  number_of_stories 2;
  ceiling_height 8;
  over_sizing_factor 0.2970;
  Rroof 47.43;
  Rwall 30.42;
  Rfloor 27.46;
  glazing_layers 3;
  glass_type 2;
  glazing_treatment 2;
  window_frame 4;
  Rdoors 10.49;
  airchange_per_hour 0.27;
  cooling_COP 3.1;
  air_temperature 71.51;
  mass_temperature 71.51;
  total_thermal_mass_per_floor_area 2.654;
  breaker_amps 1000;
  hvac_breaker_rating 1000;
  heating_system_type GAS;
  cooling_system_type ELECTRIC;
  cooling_setpoint 80.0;
  heating_setpoint 60.0;
  object ZIPload { // responsive
    schedule_skew 4333;
    base_power responsive_loads*1.37;
    heatgain_fraction 0.90;
    impedance_pf 1.00;
    current_pf 1.00;
    power_pf 1.00;
    impedance_fraction 0.20;
    current_fraction 0.40;
    power_fraction 0.40;
  };
  object ZIPload { // unresponsive
    schedule_skew 4333;
    base_power unresponsive_loads*1.21;
    heatgain_fraction 0.90;
    impedance_pf 1.00;
    current_pf 1.00;
    power_pf 1.00;
    impedance_fraction 0.20;
    current_fraction 0.40;
    power_fraction 0.40;
  };
  object waterheater {
    name Fdr1_Houses_A_wh_4;
    schedule_skew -11502;
    heating_element_capacity 5.5 kW;
    thermostat_deadband 8.0;
    location INSIDE;
    tank_diameter 1.5;
    tank_UA 2.3;
    water_demand small_6*0.97;
    tank_volume 25;
    tank_setpoint 121.4;
    object metrics_collector {
      interval 300;
    };
  };
  object metrics_collector {
    interval 300;
  };
}
object triplex_line {
  name Fdr1_Houses_A_tpx_5;
  from Fdr1_Houses_A;
  to Fdr1_Houses_A_mtr_5;
  phases AS;
  length 30;
  configuration Fdr1_tpx_config;
}
object triplex_meter {
  name Fdr1_Houses_A_mtr_5;
  phases AS;
  meter_power_consumption 1+7j;
  bill_mode TIERED;
  price 0.1020;
  monthly_fee 13.00;
  bill_day 1;
  first_tier_energy 500.0;
  first_tier_price 0.117013;
  second_tier_energy 1000.0;
  second_tier_price 0.122513;
  nominal_voltage 120.0;
  voltage_1 120.0+0.0j;
  voltage_2 120.0+0.0j;
  object metrics_collector {
    interval 300;
  };
}
object triplex_meter {
  name Fdr1_Houses_A_mhse_5;
  parent Fdr1_Houses_A_mtr_5;
  phases AS;
  nominal_voltage 120.0;
}
object house {
  name Fdr1_Houses_A_hse_5;
  parent Fdr1_Houses_A_mhse_5;
  groupid SINGLE_FAMILY;
  // thermal_integrity_level VERY_GOOD;
  schedule_skew -391;
  floor_area 3196;
  number_of_stories 1;
  ceiling_height 9;
  over_sizing_factor 0.2420;
  Rroof 42.83;
  Rwall 30.97;
  Rfloor 35.33;
  glazing_layers 3;
  glass_type 2;
  glazing_treatment 2;
  window_frame 4;
  Rdoors 12.10;
  airchange_per_hour 0.23;
  cooling_COP 3.2;
  air_temperature 69.96;
  mass_temperature 69.96;
  total_thermal_mass_per_floor_area 3.008;
  breaker_amps 1000;
  hvac_breaker_rating 1000;
  heating_system_type GAS;
  cooling_system_type ELECTRIC;
  cooling_setpoint 80.0;
  heating_setpoint 60.0;
  object ZIPload { // responsive
    schedule_skew -391;
    base_power responsive_loads*1.23;
    heatgain_fraction 0.90;
    impedance_pf 1.00;
    current_pf 1.00;
    power_pf 1.00;
    impedance_fraction 0.20;
    current_fraction 0.40;
    power_fraction 0.40;
  };
  object ZIPload { // unresponsive
    schedule_skew -391;
    base_power unresponsive_loads*1.25;
    heatgain_fraction 0.90;
    impedance_pf 1.00;
    current_pf 1.00;
    power_pf 1.00;
    impedance_fraction 0.20;
    current_fraction 0.40;
    power_fraction 0.40;
  };
  object waterheater {
    name Fdr1_Houses_A_wh_5;
    schedule_skew -3919;
    heating_element_capacity 4.5 kW;
    thermostat_deadband 6.9;
    location INSIDE;
    tank_diameter 1.5;
    tank_UA 2.6;
    water_demand small_3*0.97;
    tank_volume 25;
    tank_setpoint 119.4;
    object metrics_collector {
      interval 300;
    };
  };
  object metrics_collector {
    interval 300;
  };
}
object triplex_line {
  name Fdr1_Houses_A_tpx_6;
  from Fdr1_Houses_A;
  to Fdr1_Houses_A_mtr_6;
  phases AS;
  length 30;
  configuration Fdr1_tpx_config;
}
object triplex_meter {
  name Fdr1_Houses_A_mtr_6;
  phases AS;
  meter_power_consumption 1+7j;
  bill_mode TIERED;
  price 0.1020;
  monthly_fee 13.00;
  bill_day 1;
  first_tier_energy 500.0;
  first_tier_price 0.117013;
  second_tier_energy 1000.0;
  second_tier_price 0.122513;
  nominal_voltage 120.0;
  voltage_1 120.0+0.0j;
  voltage_2 120.0+0.0j;
  object metrics_collector {
    interval 300;
  };
}
object triplex_meter {
  name Fdr1_Houses_A_mhse_6;
  parent Fdr1_Houses_A_mtr_6;
  phases AS;
  nominal_voltage 120.0;
}
object house {
  name Fdr1_Houses_A_hse_6;
  parent Fdr1_Houses_A_mhse_6;
  groupid SINGLE_FAMILY;
  // thermal_integrity_level VERY_GOOD;
  schedule_skew -2506;
  floor_area 3558;
  number_of_stories 1;
  ceiling_height 8;
  over_sizing_factor 0.2616;
  Rroof 38.87;
  Rwall 23.15;
  Rfloor 32.15;
  glazing_layers 3;
  glass_type 2;
  glazing_treatment 2;
  window_frame 4;
  Rdoors 10.80;
  airchange_per_hour 0.25;
  cooling_COP 3.2;
  air_temperature 71.59;
  mass_temperature 71.59;
  total_thermal_mass_per_floor_area 3.986;
  breaker_amps 1000;
  hvac_breaker_rating 1000;
  heating_system_type GAS;
  cooling_system_type ELECTRIC;
  cooling_setpoint 80.0;
  heating_setpoint 60.0;
  object ZIPload { // responsive
    schedule_skew -2506;
    base_power responsive_loads*1.32;
    heatgain_fraction 0.90;
    impedance_pf 1.00;
    current_pf 1.00;
    power_pf 1.00;
    impedance_fraction 0.20;
    current_fraction 0.40;
    power_fraction 0.40;
  };
  object ZIPload { // unresponsive
    schedule_skew -2506;
    base_power unresponsive_loads*1.25;
    heatgain_fraction 0.90;
    impedance_pf 1.00;
    current_pf 1.00;
    power_pf 1.00;
    impedance_fraction 0.20;
    current_fraction 0.40;
    power_fraction 0.40;
  };
  object waterheater {
    name Fdr1_Houses_A_wh_6;
    schedule_skew 12075;
    heating_element_capacity 5.5 kW;
    thermostat_deadband 5.9;
    location INSIDE;
    tank_diameter 1.5;
    tank_UA 3.6;
    water_demand small_2*1.04;
    tank_volume 20;
    tank_setpoint 117.3;
    object metrics_collector {
      interval 300;
    };
  };
  object metrics_collector {
    interval 300;
  };
}
object triplex_line {
  name Fdr1_Houses_A_tpx_7;
  from Fdr1_Houses_A;
  to Fdr1_Houses_A_mtr_7;
  phases AS;
  length 30;
  configuration Fdr1_tpx_config;
}
object triplex_meter {
  name Fdr1_Houses_A_mtr_7;
  phases AS;
  meter_power_consumption 1+7j;
  bill_mode TIERED;
  price 0.1020;
  monthly_fee 13.00;
  bill_day 1;
  first_tier_energy 500.0;
  first_tier_price 0.117013;
  second_tier_energy 1000.0;
  second_tier_price 0.122513;
  nominal_voltage 120.0;
  voltage_1 120.0+0.0j;
  voltage_2 120.0+0.0j;
  object metrics_collector {
    interval 300;
  };
}
object triplex_meter {
  name Fdr1_Houses_A_mhse_7;
  parent Fdr1_Houses_A_mtr_7;
  phases AS;
  nominal_voltage 120.0;
}
object house {
  name Fdr1_Houses_A_hse_7;
  parent Fdr1_Houses_A_mhse_7;
  groupid SINGLE_FAMILY;
  // thermal_integrity_level VERY_GOOD;
  schedule_skew 1646;
  floor_area 3219;
  number_of_stories 1;
  ceiling_height 8;
  over_sizing_factor 0.3210;
  Rroof 43.72;
  Rwall 24.36;
  Rfloor 32.45;
  glazing_layers 3;
  glass_type 2;
  glazing_treatment 2;
  window_frame 4;
  Rdoors 10.84;
  airchange_per_hour 0.28;
  cooling_COP 3.1;
  air_temperature 68.82;
  mass_temperature 68.82;
  total_thermal_mass_per_floor_area 2.747;
  breaker_amps 1000;
  hvac_breaker_rating 1000;
  heating_system_type GAS;
  cooling_system_type ELECTRIC;
  cooling_setpoint 80.0;
  heating_setpoint 60.0;
  object ZIPload { // responsive
    schedule_skew 1646;
    base_power responsive_loads*1.15;
    heatgain_fraction 0.90;
    impedance_pf 1.00;
    current_pf 1.00;
    power_pf 1.00;
    impedance_fraction 0.20;
    current_fraction 0.40;
    power_fraction 0.40;
  };
  object ZIPload { // unresponsive
    schedule_skew 1646;
    base_power unresponsive_loads*1.13;
    heatgain_fraction 0.90;
    impedance_pf 1.00;
    current_pf 1.00;
    power_pf 1.00;
    impedance_fraction 0.20;
    current_fraction 0.40;
    power_fraction 0.40;
  };
  object waterheater {
    name Fdr1_Houses_A_wh_7;
    schedule_skew 6147;
    heating_element_capacity 3.5 kW;
    thermostat_deadband 7.9;
    location INSIDE;
    tank_diameter 1.5;
    tank_UA 3.4;
    water_demand large_2*1.00;
    tank_volume 70;
    tank_setpoint 123.3;
    object metrics_collector {
      interval 300;
    };
  };
  object metrics_collector {
    interval 300;
  };
}
object triplex_line {
  name Fdr1_Houses_A_tpx_8;
  from Fdr1_Houses_A;
  to Fdr1_Houses_A_mtr_8;
  phases AS;
  length 30;
  configuration Fdr1_tpx_config;
}
object triplex_meter {
  name Fdr1_Houses_A_mtr_8;
  phases AS;
  meter_power_consumption 1+7j;
  bill_mode TIERED;
  price 0.1020;
  monthly_fee 13.00;
  bill_day 1;
  first_tier_energy 500.0;
  first_tier_price 0.117013;
  second_tier_energy 1000.0;
  second_tier_price 0.122513;
  nominal_voltage 120.0;
  voltage_1 120.0+0.0j;
  voltage_2 120.0+0.0j;
  object metrics_collector {
    interval 300;
  };
}
object triplex_meter {
  name Fdr1_Houses_A_mhse_8;
  parent Fdr1_Houses_A_mtr_8;
  phases AS;
  nominal_voltage 120.0;
}
object house {
  name Fdr1_Houses_A_hse_8;
  parent Fdr1_Houses_A_mhse_8;
  groupid SINGLE_FAMILY;
  // thermal_integrity_level VERY_GOOD;
  schedule_skew -1033;
  floor_area 3822;
  number_of_stories 1;
  ceiling_height 8;
  over_sizing_factor 0.3419;
  Rroof 50.26;
  Rwall 22.55;
  Rfloor 28.17;
  glazing_layers 3;
  glass_type 2;
  glazing_treatment 2;
  window_frame 4;
  Rdoors 9.45;
  airchange_per_hour 0.30;
  cooling_COP 3.6;
  air_temperature 69.91;
  mass_temperature 69.91;
  total_thermal_mass_per_floor_area 3.246;
  breaker_amps 1000;
  hvac_breaker_rating 1000;
  heating_system_type GAS;
  cooling_system_type ELECTRIC;
  cooling_setpoint 80.0;
  heating_setpoint 60.0;
  object ZIPload { // responsive
    schedule_skew -1033;
    base_power responsive_loads*1.56;
    heatgain_fraction 0.90;
    impedance_pf 1.00;
    current_pf 1.00;
    power_pf 1.00;
    impedance_fraction 0.20;
    current_fraction 0.40;
    power_fraction 0.40;
  };
  object ZIPload { // unresponsive
    schedule_skew -1033;
    base_power unresponsive_loads*1.47;
    heatgain_fraction 0.90;
    impedance_pf 1.00;
    current_pf 1.00;
    power_pf 1.00;
    impedance_fraction 0.20;
    current_fraction 0.40;
    power_fraction 0.40;
  };
  object waterheater {
    name Fdr1_Houses_A_wh_8;
    schedule_skew 5602;
    heating_element_capacity 5.5 kW;
    thermostat_deadband 7.1;
    location INSIDE;
    tank_diameter 1.5;
    tank_UA 3.9;
    water_demand small_2*1.05;
    tank_volume 30;
    tank_setpoint 114.8;
    object metrics_collector {
      interval 300;
    };
  };
  object metrics_collector {
    interval 300;
  };
}
object triplex_line {
  name Fdr1_Houses_A_tpx_9;
  from Fdr1_Houses_A;
  to Fdr1_Houses_A_mtr_9;
  phases AS;
  length 30;
  configuration Fdr1_tpx_config;
}
object triplex_meter {
  name Fdr1_Houses_A_mtr_9;
  phases AS;
  meter_power_consumption 1+7j;
  bill_mode TIERED;
  price 0.1020;
  monthly_fee 13.00;
  bill_day 1;
  first_tier_energy 500.0;
  first_tier_price 0.117013;
  second_tier_energy 1000.0;
  second_tier_price 0.122513;
  nominal_voltage 120.0;
  voltage_1 120.0+0.0j;
  voltage_2 120.0+0.0j;
  object metrics_collector {
    interval 300;
  };
}
object triplex_meter {
  name Fdr1_Houses_A_mhse_9;
  parent Fdr1_Houses_A_mtr_9;
  phases AS;
  nominal_voltage 120.0;
}
object house {
  name Fdr1_Houses_A_hse_9;
  parent Fdr1_Houses_A_mhse_9;
  groupid SINGLE_FAMILY;
  // thermal_integrity_level VERY_GOOD;
  schedule_skew -1106;
  floor_area 2774;
  number_of_stories 1;
  ceiling_height 8;
  over_sizing_factor 0.2516;
  Rroof 43.32;
  Rwall 29.03;
  Rfloor 29.72;
  glazing_layers 3;
  glass_type 2;
  glazing_treatment 2;
  window_frame 4;
  Rdoors 10.95;
  airchange_per_hour 0.25;
  cooling_COP 3.9;
  air_temperature 70.10;
  mass_temperature 70.10;
  total_thermal_mass_per_floor_area 3.163;
  breaker_amps 1000;
  hvac_breaker_rating 1000;
  heating_system_type GAS;
  cooling_system_type ELECTRIC;
  cooling_setpoint 80.0;
  heating_setpoint 60.0;
  object ZIPload { // responsive
    schedule_skew -1106;
    base_power responsive_loads*1.18;
    heatgain_fraction 0.90;
    impedance_pf 1.00;
    current_pf 1.00;
    power_pf 1.00;
    impedance_fraction 0.20;
    current_fraction 0.40;
    power_fraction 0.40;
  };
  object ZIPload { // unresponsive
    schedule_skew -1106;
    base_power unresponsive_loads*1.34;
    heatgain_fraction 0.90;
    impedance_pf 1.00;
    current_pf 1.00;
    power_pf 1.00;
    impedance_fraction 0.20;
    current_fraction 0.40;
    power_fraction 0.40;
  };
  object waterheater {
    name Fdr1_Houses_A_wh_9;
    schedule_skew 9043;
    heating_element_capacity 3.5 kW;
    thermostat_deadband 4.2;
    location INSIDE;
    tank_diameter 1.5;
    tank_UA 3.6;
    water_demand large_1*1.00;
    tank_volume 50;
    tank_setpoint 117.4;
    object metrics_collector {
      interval 300;
    };
  };
  object metrics_collector {
    interval 300;
  };
}
object triplex_line {
  name Fdr1_Houses_A_tpx_10;
  from Fdr1_Houses_A;
  to Fdr1_Houses_A_mtr_10;
  phases AS;
  length 30;
  configuration Fdr1_tpx_config;
}
object triplex_meter {
  name Fdr1_Houses_A_mtr_10;
  phases AS;
  meter_power_consumption 1+7j;
  bill_mode TIERED;
  price 0.1020;
  monthly_fee 13.00;
  bill_day 1;
  first_tier_energy 500.0;
  first_tier_price 0.117013;
  second_tier_energy 1000.0;
  second_tier_price 0.122513;
  nominal_voltage 120.0;
  voltage_1 120.0+0.0j;
  voltage_2 120.0+0.0j;
  object metrics_collector {
    interval 300;
  };
}
object triplex_meter {
  name Fdr1_Houses_A_mhse_10;
  parent Fdr1_Houses_A_mtr_10;
  phases AS;
  nominal_voltage 120.0;
}
object house {
  name Fdr1_Houses_A_hse_10;
  parent Fdr1_Houses_A_mhse_10;
  groupid SINGLE_FAMILY;
  // thermal_integrity_level VERY_GOOD;
  schedule_skew -5344;
  floor_area 3226;
  number_of_stories 1;
  ceiling_height 9;
  over_sizing_factor 0.2576;
  Rroof 41.47;
  Rwall 23.85;
  Rfloor 30.95;
  glazing_layers 3;
  glass_type 2;
  glazing_treatment 2;
  window_frame 4;
  Rdoors 9.21;
  airchange_per_hour 0.29;
  cooling_COP 3.9;
  air_temperature 68.33;
  mass_temperature 68.33;
  total_thermal_mass_per_floor_area 3.701;
  breaker_amps 1000;
  hvac_breaker_rating 1000;
  heating_system_type GAS;
  cooling_system_type ELECTRIC;
  cooling_setpoint 80.0;
  heating_setpoint 60.0;
  object ZIPload { // responsive
    schedule_skew -5344;
    base_power responsive_loads*1.11;
    heatgain_fraction 0.90;
    impedance_pf 1.00;
    current_pf 1.00;
    power_pf 1.00;
    impedance_fraction 0.20;
    current_fraction 0.40;
    power_fraction 0.40;
  };
  object ZIPload { // unresponsive
    schedule_skew -5344;
    base_power unresponsive_loads*1.37;
    heatgain_fraction 0.90;
    impedance_pf 1.00;
    current_pf 1.00;
    power_pf 1.00;
    impedance_fraction 0.20;
    current_fraction 0.40;
    power_fraction 0.40;
  };
  object metrics_collector {
    interval 300;
  };
}
object triplex_line {
  name Fdr1_Houses_A_tpx_11;
  from Fdr1_Houses_A;
  to Fdr1_Houses_A_mtr_11;
  phases AS;
  length 30;
  configuration Fdr1_tpx_config;
}
object triplex_meter {
  name Fdr1_Houses_A_mtr_11;
  phases AS;
  meter_power_consumption 1+7j;
  bill_mode TIERED;
  price 0.1020;
  monthly_fee 13.00;
  bill_day 1;
  first_tier_energy 500.0;
  first_tier_price 0.117013;
  second_tier_energy 1000.0;
  second_tier_price 0.122513;
  nominal_voltage 120.0;
  voltage_1 120.0+0.0j;
  voltage_2 120.0+0.0j;
  object metrics_collector {
    interval 300;
  };
}
object triplex_meter {
  name Fdr1_Houses_A_mhse_11;
  parent Fdr1_Houses_A_mtr_11;
  phases AS;
  nominal_voltage 120.0;
}
object house {
  name Fdr1_Houses_A_hse_11;
  parent Fdr1_Houses_A_mhse_11;
  groupid SINGLE_FAMILY;
  // thermal_integrity_level VERY_GOOD;
  schedule_skew 1203;
  floor_area 3480;
  number_of_stories 2;
  ceiling_height 9;
  over_sizing_factor 0.2591;
  Rroof 50.47;
  Rwall 26.86;
  Rfloor 24.75;
  glazing_layers 3;
  glass_type 2;
  glazing_treatment 2;
  window_frame 4;
  Rdoors 10.67;
  airchange_per_hour 0.23;
  cooling_COP 4.0;
  air_temperature 71.40;
  mass_temperature 71.40;
  total_thermal_mass_per_floor_area 2.550;
  breaker_amps 1000;
  hvac_breaker_rating 1000;
  heating_system_type GAS;
  cooling_system_type ELECTRIC;
  cooling_setpoint 80.0;
  heating_setpoint 60.0;
  object ZIPload { // responsive
    schedule_skew 1203;
    base_power responsive_loads*1.56;
    heatgain_fraction 0.90;
    impedance_pf 1.00;
    current_pf 1.00;
    power_pf 1.00;
    impedance_fraction 0.20;
    current_fraction 0.40;
    power_fraction 0.40;
  };
  object ZIPload { // unresponsive
    schedule_skew 1203;
    base_power unresponsive_loads*1.51;
    heatgain_fraction 0.90;
    impedance_pf 1.00;
    current_pf 1.00;
    power_pf 1.00;
    impedance_fraction 0.20;
    current_fraction 0.40;
    power_fraction 0.40;
  };
  object waterheater {
    name Fdr1_Houses_A_wh_11;
    schedule_skew -1383;
    heating_element_capacity 4.5 kW;
    thermostat_deadband 5.7;
    location INSIDE;
    tank_diameter 1.5;
    tank_UA 2.1;
    water_demand large_2*0.97;
    tank_volume 60;
    tank_setpoint 110.2;
    object metrics_collector {
      interval 300;
    };
  };
  object metrics_collector {
    interval 300;
  };
}
object triplex_line {
  name Fdr1_Houses_A_tpx_12;
  from Fdr1_Houses_A;
  to Fdr1_Houses_A_mtr_12;
  phases AS;
  length 30;
  configuration Fdr1_tpx_config;
}
object triplex_meter {
  name Fdr1_Houses_A_mtr_12;
  phases AS;
  meter_power_consumption 1+7j;
  bill_mode TIERED;
  price 0.1020;
  monthly_fee 13.00;
  bill_day 1;
  first_tier_energy 500.0;
  first_tier_price 0.117013;
  second_tier_energy 1000.0;
  second_tier_price 0.122513;
  nominal_voltage 120.0;
  voltage_1 120.0+0.0j;
  voltage_2 120.0+0.0j;
  object metrics_collector {
    interval 300;
  };
}
object triplex_meter {
  name Fdr1_Houses_A_mhse_12;
  parent Fdr1_Houses_A_mtr_12;
  phases AS;
  nominal_voltage 120.0;
}
object house {
  name Fdr1_Houses_A_hse_12;
  parent Fdr1_Houses_A_mhse_12;
  groupid SINGLE_FAMILY;
  // thermal_integrity_level VERY_GOOD;
  schedule_skew -6358;
  floor_area 2716;
  number_of_stories 1;
  ceiling_height 9;
  over_sizing_factor 0.3587;
  Rroof 39.65;
  Rwall 31.17;
  Rfloor 27.46;
  glazing_layers 3;
  glass_type 2;
  glazing_treatment 2;
  window_frame 4;
  Rdoors 9.86;
  airchange_per_hour 0.27;
  cooling_COP 3.5;
  air_temperature 68.98;
  mass_temperature 68.98;
  total_thermal_mass_per_floor_area 3.499;
  breaker_amps 1000;
  hvac_breaker_rating 1000;
  heating_system_type GAS;
  cooling_system_type ELECTRIC;
  cooling_setpoint 80.0;
  heating_setpoint 60.0;
  object ZIPload { // responsive
    schedule_skew -6358;
    base_power responsive_loads*1.27;
    heatgain_fraction 0.90;
    impedance_pf 1.00;
    current_pf 1.00;
    power_pf 1.00;
    impedance_fraction 0.20;
    current_fraction 0.40;
    power_fraction 0.40;
  };
  object ZIPload { // unresponsive
    schedule_skew -6358;
    base_power unresponsive_loads*1.20;
    heatgain_fraction 0.90;
    impedance_pf 1.00;
    current_pf 1.00;
    power_pf 1.00;
    impedance_fraction 0.20;
    current_fraction 0.40;
    power_fraction 0.40;
  };
  object metrics_collector {
    interval 300;
  };
}
object triplex_line {
  name Fdr1_Houses_A_tpx_13;
  from Fdr1_Houses_A;
  to Fdr1_Houses_A_mtr_13;
  phases AS;
  length 30;
  configuration Fdr1_tpx_config;
}
object triplex_meter {
  name Fdr1_Houses_A_mtr_13;
  phases AS;
  meter_power_consumption 1+7j;
  bill_mode TIERED;
  price 0.1020;
  monthly_fee 13.00;
  bill_day 1;
  first_tier_energy 500.0;
  first_tier_price 0.117013;
  second_tier_energy 1000.0;
  second_tier_price 0.122513;
  nominal_voltage 120.0;
  voltage_1 120.0+0.0j;
  voltage_2 120.0+0.0j;
  object metrics_collector {
    interval 300;
  };
}
object triplex_meter {
  name Fdr1_Houses_A_mhse_13;
  parent Fdr1_Houses_A_mtr_13;
  phases AS;
  nominal_voltage 120.0;
}
object house {
  name Fdr1_Houses_A_hse_13;
  parent Fdr1_Houses_A_mhse_13;
  groupid SINGLE_FAMILY;
  // thermal_integrity_level VERY_GOOD;
  schedule_skew -787;
  floor_area 3049;
  number_of_stories 2;
  ceiling_height 8;
  over_sizing_factor 0.2862;
  Rroof 56.00;
  Rwall 23.67;
  Rfloor 31.57;
  glazing_layers 3;
  glass_type 2;
  glazing_treatment 2;
  window_frame 4;
  Rdoors 9.38;
  airchange_per_hour 0.24;
  cooling_COP 3.8;
  air_temperature 69.30;
  mass_temperature 69.30;
  total_thermal_mass_per_floor_area 3.520;
  breaker_amps 1000;
  hvac_breaker_rating 1000;
  heating_system_type HEAT_PUMP;
  heating_COP 3.8;
  cooling_system_type ELECTRIC;
  auxiliary_strategy DEADBAND;
  auxiliary_system_type ELECTRIC;
  motor_model BASIC;
  motor_efficiency AVERAGE;
  cooling_setpoint 80.0;
  heating_setpoint 60.0;
  object ZIPload { // responsive
    schedule_skew -787;
    base_power responsive_loads*1.13;
    heatgain_fraction 0.90;
    impedance_pf 1.00;
    current_pf 1.00;
    power_pf 1.00;
    impedance_fraction 0.20;
    current_fraction 0.40;
    power_fraction 0.40;
  };
  object ZIPload { // unresponsive
    schedule_skew -787;
    base_power unresponsive_loads*1.26;
    heatgain_fraction 0.90;
    impedance_pf 1.00;
    current_pf 1.00;
    power_pf 1.00;
    impedance_fraction 0.20;
    current_fraction 0.40;
    power_fraction 0.40;
  };
  object waterheater {
    name Fdr1_Houses_A_wh_13;
    schedule_skew 6513;
    heating_element_capacity 4.5 kW;
    thermostat_deadband 4.3;
    location INSIDE;
    tank_diameter 1.5;
    tank_UA 2.6;
    water_demand large_1*0.99;
    tank_volume 30;
    waterheater_model MULTILAYER;
    discrete_step_size 60.0;
    lower_tank_setpoint 112.2;
    upper_tank_setpoint 122.2;
    T_mixing_valve 117.2;
    object metrics_collector {
      interval 300;
    };
  };
  object metrics_collector {
    interval 300;
  };
}
object triplex_line {
  name Fdr1_Houses_A_tpx_14;
  from Fdr1_Houses_A;
  to Fdr1_Houses_A_mtr_14;
  phases AS;
  length 30;
  configuration Fdr1_tpx_config;
}
object triplex_meter {
  name Fdr1_Houses_A_mtr_14;
  phases AS;
  meter_power_consumption 1+7j;
  bill_mode TIERED;
  price 0.1020;
  monthly_fee 13.00;
  bill_day 1;
  first_tier_energy 500.0;
  first_tier_price 0.117013;
  second_tier_energy 1000.0;
  second_tier_price 0.122513;
  nominal_voltage 120.0;
  voltage_1 120.0+0.0j;
  voltage_2 120.0+0.0j;
  object metrics_collector {
    interval 300;
  };
}
object triplex_meter {
  name Fdr1_Houses_A_mhse_14;
  parent Fdr1_Houses_A_mtr_14;
  phases AS;
  nominal_voltage 120.0;
}
object house {
  name Fdr1_Houses_A_hse_14;
  parent Fdr1_Houses_A_mhse_14;
  groupid SINGLE_FAMILY;
  // thermal_integrity_level VERY_GOOD;
  schedule_skew 3271;
  floor_area 2681;
  number_of_stories 2;
  ceiling_height 9;
  over_sizing_factor 0.2726;
  Rroof 47.14;
  Rwall 26.90;
  Rfloor 26.98;
  glazing_layers 3;
  glass_type 2;
  glazing_treatment 2;
  window_frame 4;
  Rdoors 11.03;
  airchange_per_hour 0.23;
  cooling_COP 3.8;
  air_temperature 69.49;
  mass_temperature 69.49;
  total_thermal_mass_per_floor_area 3.287;
  breaker_amps 1000;
  hvac_breaker_rating 1000;
  heating_system_type GAS;
  cooling_system_type NONE;
  cooling_setpoint 80.0;
  heating_setpoint 60.0;
  object ZIPload { // responsive
    schedule_skew 3271;
    base_power responsive_loads*1.24;
    heatgain_fraction 0.90;
    impedance_pf 1.00;
    current_pf 1.00;
    power_pf 1.00;
    impedance_fraction 0.20;
    current_fraction 0.40;
    power_fraction 0.40;
  };
  object ZIPload { // unresponsive
    schedule_skew 3271;
    base_power unresponsive_loads*1.38;
    heatgain_fraction 0.90;
    impedance_pf 1.00;
    current_pf 1.00;
    power_pf 1.00;
    impedance_fraction 0.20;
    current_fraction 0.40;
    power_fraction 0.40;
  };
  object waterheater {
    name Fdr1_Houses_A_wh_14;
    schedule_skew -17572;
    heating_element_capacity 4.0 kW;
    thermostat_deadband 5.1;
    location INSIDE;
    tank_diameter 1.5;
    tank_UA 2.3;
    water_demand small_6*1.01;
    tank_volume 30;
    tank_setpoint 118.8;
    object metrics_collector {
      interval 300;
    };
  };
  object metrics_collector {
    interval 300;
  };
}
object triplex_line {
  name Fdr1_Houses_A_tpx_15;
  from Fdr1_Houses_A;
  to Fdr1_Houses_A_mtr_15;
  phases AS;
  length 30;
  configuration Fdr1_tpx_config;
}
object triplex_meter {
  name Fdr1_Houses_A_mtr_15;
  phases AS;
  meter_power_consumption 1+7j;
  bill_mode TIERED;
  price 0.1020;
  monthly_fee 13.00;
  bill_day 1;
  first_tier_energy 500.0;
  first_tier_price 0.117013;
  second_tier_energy 1000.0;
  second_tier_price 0.122513;
  nominal_voltage 120.0;
  voltage_1 120.0+0.0j;
  voltage_2 120.0+0.0j;
  object metrics_collector {
    interval 300;
  };
}
object triplex_meter {
  name Fdr1_Houses_A_mhse_15;
  parent Fdr1_Houses_A_mtr_15;
  phases AS;
  nominal_voltage 120.0;
}
object house {
  name Fdr1_Houses_A_hse_15;
  parent Fdr1_Houses_A_mhse_15;
  groupid SINGLE_FAMILY;
  // thermal_integrity_level VERY_GOOD;
  schedule_skew -1684;
  floor_area 2774;
  number_of_stories 1;
  ceiling_height 8;
  over_sizing_factor 0.2748;
  Rroof 48.75;
  Rwall 30.51;
  Rfloor 28.67;
  glazing_layers 3;
  glass_type 2;
  glazing_treatment 2;
  window_frame 4;
  Rdoors 9.80;
  airchange_per_hour 0.25;
  cooling_COP 3.9;
  air_temperature 71.89;
  mass_temperature 71.89;
  total_thermal_mass_per_floor_area 3.751;
  breaker_amps 1000;
  hvac_breaker_rating 1000;
  heating_system_type GAS;
  cooling_system_type ELECTRIC;
  cooling_setpoint 80.0;
  heating_setpoint 60.0;
  object ZIPload { // responsive
    schedule_skew -1684;
    base_power responsive_loads*1.18;
    heatgain_fraction 0.90;
    impedance_pf 1.00;
    current_pf 1.00;
    power_pf 1.00;
    impedance_fraction 0.20;
    current_fraction 0.40;
    power_fraction 0.40;
  };
  object ZIPload { // unresponsive
    schedule_skew -1684;
    base_power unresponsive_loads*1.41;
    heatgain_fraction 0.90;
    impedance_pf 1.00;
    current_pf 1.00;
    power_pf 1.00;
    impedance_fraction 0.20;
    current_fraction 0.40;
    power_fraction 0.40;
  };
  object waterheater {
    name Fdr1_Houses_A_wh_15;
    schedule_skew 2408;
    heating_element_capacity 5.5 kW;
    thermostat_deadband 6.5;
    location INSIDE;
    tank_diameter 1.5;
    tank_UA 2.3;
    water_demand large_6*1.04;
    tank_volume 50;
    waterheater_model MULTILAYER;
    discrete_step_size 60.0;
    lower_tank_setpoint 119.2;
    upper_tank_setpoint 129.2;
    T_mixing_valve 124.2;
    object metrics_collector {
      interval 300;
    };
  };
  object metrics_collector {
    interval 300;
  };
}
object triplex_line {
  name Fdr1_Houses_A_tpx_16;
  from Fdr1_Houses_A;
  to Fdr1_Houses_A_mtr_16;
  phases AS;
  length 30;
  configuration Fdr1_tpx_config;
}
object triplex_meter {
  name Fdr1_Houses_A_mtr_16;
  phases AS;
  meter_power_consumption 1+7j;
  bill_mode TIERED;
  price 0.1020;
  monthly_fee 13.00;
  bill_day 1;
  first_tier_energy 500.0;
  first_tier_price 0.117013;
  second_tier_energy 1000.0;
  second_tier_price 0.122513;
  nominal_voltage 120.0;
  voltage_1 120.0+0.0j;
  voltage_2 120.0+0.0j;
  object metrics_collector {
    interval 300;
  };
}
object triplex_meter {
  name Fdr1_Houses_A_mhse_16;
  parent Fdr1_Houses_A_mtr_16;
  phases AS;
  nominal_voltage 120.0;
}
object house {
  name Fdr1_Houses_A_hse_16;
  parent Fdr1_Houses_A_mhse_16;
  groupid SINGLE_FAMILY;
  // thermal_integrity_level VERY_GOOD;
  schedule_skew -232;
  floor_area 2712;
  number_of_stories 1;
  ceiling_height 8;
  over_sizing_factor 0.2593;
  Rroof 55.42;
  Rwall 27.40;
  Rfloor 34.89;
  glazing_layers 3;
  glass_type 2;
  glazing_treatment 2;
  window_frame 4;
  Rdoors 9.51;
  airchange_per_hour 0.27;
  cooling_COP 3.7;
  air_temperature 69.76;
  mass_temperature 69.76;
  total_thermal_mass_per_floor_area 2.615;
  breaker_amps 1000;
  hvac_breaker_rating 1000;
  heating_system_type GAS;
  cooling_system_type ELECTRIC;
  cooling_setpoint 80.0;
  heating_setpoint 60.0;
  object ZIPload { // responsive
    schedule_skew -232;
    base_power responsive_loads*1.04;
    heatgain_fraction 0.90;
    impedance_pf 1.00;
    current_pf 1.00;
    power_pf 1.00;
    impedance_fraction 0.20;
    current_fraction 0.40;
    power_fraction 0.40;
  };
  object ZIPload { // unresponsive
    schedule_skew -232;
    base_power unresponsive_loads*1.15;
    heatgain_fraction 0.90;
    impedance_pf 1.00;
    current_pf 1.00;
    power_pf 1.00;
    impedance_fraction 0.20;
    current_fraction 0.40;
    power_fraction 0.40;
  };
  object waterheater {
    name Fdr1_Houses_A_wh_16;
    schedule_skew 1574;
    heating_element_capacity 3.5 kW;
    thermostat_deadband 7.9;
    location INSIDE;
    tank_diameter 1.5;
    tank_UA 3.3;
    water_demand large_2*0.97;
    tank_volume 50;
    tank_setpoint 110.1;
    object metrics_collector {
      interval 300;
    };
  };
  object metrics_collector {
    interval 300;
  };
}
object triplex_line {
  name Fdr1_Houses_A_tpx_17;
  from Fdr1_Houses_A;
  to Fdr1_Houses_A_mtr_17;
  phases AS;
  length 30;
  configuration Fdr1_tpx_config;
}
object triplex_meter {
  name Fdr1_Houses_A_mtr_17;
  phases AS;
  meter_power_consumption 1+7j;
  bill_mode TIERED;
  price 0.1020;
  monthly_fee 13.00;
  bill_day 1;
  first_tier_energy 500.0;
  first_tier_price 0.117013;
  second_tier_energy 1000.0;
  second_tier_price 0.122513;
  nominal_voltage 120.0;
  voltage_1 120.0+0.0j;
  voltage_2 120.0+0.0j;
  object metrics_collector {
    interval 300;
  };
}
object triplex_meter {
  name Fdr1_Houses_A_mhse_17;
  parent Fdr1_Houses_A_mtr_17;
  phases AS;
  nominal_voltage 120.0;
}
object house {
  name Fdr1_Houses_A_hse_17;
  parent Fdr1_Houses_A_mhse_17;
  groupid SINGLE_FAMILY;
  // thermal_integrity_level VERY_GOOD;
  schedule_skew -4696;
  floor_area 3338;
  number_of_stories 1;
  ceiling_height 8;
  over_sizing_factor 0.3188;
  Rroof 50.92;
  Rwall 31.60;
  Rfloor 28.83;
  glazing_layers 3;
  glass_type 2;
  glazing_treatment 2;
  window_frame 4;
  Rdoors 8.97;
  airchange_per_hour 0.30;
  cooling_COP 3.7;
  air_temperature 69.79;
  mass_temperature 69.79;
  total_thermal_mass_per_floor_area 3.906;
  breaker_amps 1000;
  hvac_breaker_rating 1000;
  heating_system_type GAS;
  cooling_system_type ELECTRIC;
  cooling_setpoint 80.0;
  heating_setpoint 60.0;
  object ZIPload { // responsive
    schedule_skew -4696;
    base_power responsive_loads*1.36;
    heatgain_fraction 0.90;
    impedance_pf 1.00;
    current_pf 1.00;
    power_pf 1.00;
    impedance_fraction 0.20;
    current_fraction 0.40;
    power_fraction 0.40;
  };
  object ZIPload { // unresponsive
    schedule_skew -4696;
    base_power unresponsive_loads*1.28;
    heatgain_fraction 0.90;
    impedance_pf 1.00;
    current_pf 1.00;
    power_pf 1.00;
    impedance_fraction 0.20;
    current_fraction 0.40;
    power_fraction 0.40;
  };
  object waterheater {
    name Fdr1_Houses_A_wh_17;
    schedule_skew 8984;
    heating_element_capacity 5.0 kW;
    thermostat_deadband 7.7;
    location INSIDE;
    tank_diameter 1.5;
    tank_UA 3.9;
    water_demand large_1*1.01;
    tank_volume 30;
    tank_setpoint 119.3;
    object metrics_collector {
      interval 300;
    };
  };
  object metrics_collector {
    interval 300;
  };
}
object triplex_line {
  name Fdr1_Houses_A_tpx_18;
  from Fdr1_Houses_A;
  to Fdr1_Houses_A_mtr_18;
  phases AS;
  length 30;
  configuration Fdr1_tpx_config;
}
object triplex_meter {
  name Fdr1_Houses_A_mtr_18;
  phases AS;
  meter_power_consumption 1+7j;
  bill_mode TIERED;
  price 0.1020;
  monthly_fee 13.00;
  bill_day 1;
  first_tier_energy 500.0;
  first_tier_price 0.117013;
  second_tier_energy 1000.0;
  second_tier_price 0.122513;
  nominal_voltage 120.0;
  voltage_1 120.0+0.0j;
  voltage_2 120.0+0.0j;
  object metrics_collector {
    interval 300;
  };
}
object triplex_meter {
  name Fdr1_Houses_A_mhse_18;
  parent Fdr1_Houses_A_mtr_18;
  phases AS;
  nominal_voltage 120.0;
}
object house {
  name Fdr1_Houses_A_hse_18;
  parent Fdr1_Houses_A_mhse_18;
  groupid SINGLE_FAMILY;
  // thermal_integrity_level VERY_GOOD;
  schedule_skew -2162;
  floor_area 3527;
  number_of_stories 2;
  ceiling_height 9;
  over_sizing_factor 0.3582;
  Rroof 55.61;
  Rwall 25.44;
  Rfloor 29.68;
  glazing_layers 3;
  glass_type 2;
  glazing_treatment 2;
  window_frame 4;
  Rdoors 10.91;
  airchange_per_hour 0.25;
  cooling_COP 3.0;
  air_temperature 71.87;
  mass_temperature 71.87;
  total_thermal_mass_per_floor_area 2.650;
  breaker_amps 1000;
  hvac_breaker_rating 1000;
  heating_system_type HEAT_PUMP;
  heating_COP 3.0;
  cooling_system_type ELECTRIC;
  auxiliary_strategy DEADBAND;
  auxiliary_system_type ELECTRIC;
  motor_model BASIC;
  motor_efficiency AVERAGE;
  cooling_setpoint 80.0;
  heating_setpoint 60.0;
  object ZIPload { // responsive
    schedule_skew -2162;
    base_power responsive_loads*1.13;
    heatgain_fraction 0.90;
    impedance_pf 1.00;
    current_pf 1.00;
    power_pf 1.00;
    impedance_fraction 0.20;
    current_fraction 0.40;
    power_fraction 0.40;
  };
  object ZIPload { // unresponsive
    schedule_skew -2162;
    base_power unresponsive_loads*1.41;
    heatgain_fraction 0.90;
    impedance_pf 1.00;
    current_pf 1.00;
    power_pf 1.00;
    impedance_fraction 0.20;
    current_fraction 0.40;
    power_fraction 0.40;
  };
  object metrics_collector {
    interval 300;
  };
}
object triplex_line {
  name Fdr1_Houses_A_tpx_19;
  from Fdr1_Houses_A;
  to Fdr1_Houses_A_mtr_19;
  phases AS;
  length 30;
  configuration Fdr1_tpx_config;
}
object triplex_meter {
  name Fdr1_Houses_A_mtr_19;
  phases AS;
  meter_power_consumption 1+7j;
  bill_mode TIERED;
  price 0.1020;
  monthly_fee 13.00;
  bill_day 1;
  first_tier_energy 500.0;
  first_tier_price 0.117013;
  second_tier_energy 1000.0;
  second_tier_price 0.122513;
  nominal_voltage 120.0;
  voltage_1 120.0+0.0j;
  voltage_2 120.0+0.0j;
  object metrics_collector {
    interval 300;
  };
}
object triplex_meter {
  name Fdr1_Houses_A_mhse_19;
  parent Fdr1_Houses_A_mtr_19;
  phases AS;
  nominal_voltage 120.0;
}
object house {
  name Fdr1_Houses_A_hse_19;
  parent Fdr1_Houses_A_mhse_19;
  groupid SINGLE_FAMILY;
  // thermal_integrity_level VERY_GOOD;
  schedule_skew -630;
  floor_area 3075;
  number_of_stories 2;
  ceiling_height 8;
  over_sizing_factor 0.2436;
  Rroof 52.56;
  Rwall 23.63;
  Rfloor 31.28;
  glazing_layers 3;
  glass_type 2;
  glazing_treatment 2;
  window_frame 4;
  Rdoors 11.89;
  airchange_per_hour 0.26;
  cooling_COP 3.9;
  air_temperature 71.84;
  mass_temperature 71.84;
  total_thermal_mass_per_floor_area 2.655;
  breaker_amps 1000;
  hvac_breaker_rating 1000;
  heating_system_type GAS;
  cooling_system_type ELECTRIC;
  cooling_setpoint 80.0;
  heating_setpoint 60.0;
  object ZIPload { // responsive
    schedule_skew -630;
    base_power responsive_loads*1.22;
    heatgain_fraction 0.90;
    impedance_pf 1.00;
    current_pf 1.00;
    power_pf 1.00;
    impedance_fraction 0.20;
    current_fraction 0.40;
    power_fraction 0.40;
  };
  object ZIPload { // unresponsive
    schedule_skew -630;
    base_power unresponsive_loads*1.18;
    heatgain_fraction 0.90;
    impedance_pf 1.00;
    current_pf 1.00;
    power_pf 1.00;
    impedance_fraction 0.20;
    current_fraction 0.40;
    power_fraction 0.40;
  };
  object waterheater {
    name Fdr1_Houses_A_wh_19;
    schedule_skew 9955;
    heating_element_capacity 5.0 kW;
    thermostat_deadband 4.1;
    location INSIDE;
    tank_diameter 1.5;
    tank_UA 2.3;
    water_demand large_4*0.97;
    tank_volume 60;
    tank_setpoint 110.1;
    object metrics_collector {
      interval 300;
    };
  };
  object metrics_collector {
    interval 300;
  };
}
object triplex_line {
  name Fdr1_Houses_A_tpx_20;
  from Fdr1_Houses_A;
  to Fdr1_Houses_A_mtr_20;
  phases AS;
  length 30;
  configuration Fdr1_tpx_config;
}
object triplex_meter {
  name Fdr1_Houses_A_mtr_20;
  phases AS;
  meter_power_consumption 1+7j;
  bill_mode TIERED;
  price 0.1020;
  monthly_fee 13.00;
  bill_day 1;
  first_tier_energy 500.0;
  first_tier_price 0.117013;
  second_tier_energy 1000.0;
  second_tier_price 0.122513;
  nominal_voltage 120.0;
  voltage_1 120.0+0.0j;
  voltage_2 120.0+0.0j;
  object metrics_collector {
    interval 300;
  };
}
object triplex_meter {
  name Fdr1_Houses_A_mhse_20;
  parent Fdr1_Houses_A_mtr_20;
  phases AS;
  nominal_voltage 120.0;
}
object house {
  name Fdr1_Houses_A_hse_20;
  parent Fdr1_Houses_A_mhse_20;
  groupid SINGLE_FAMILY;
  // thermal_integrity_level VERY_GOOD;
  schedule_skew -2615;
  floor_area 3215;
  number_of_stories 1;
  ceiling_height 8;
  over_sizing_factor 0.2871;
  Rroof 55.26;
  Rwall 30.14;
  Rfloor 35.85;
  glazing_layers 3;
  glass_type 2;
  glazing_treatment 2;
  window_frame 4;
  Rdoors 12.14;
  airchange_per_hour 0.24;
  cooling_COP 3.4;
  air_temperature 70.00;
  mass_temperature 70.00;
  total_thermal_mass_per_floor_area 3.065;
  breaker_amps 1000;
  hvac_breaker_rating 1000;
  heating_system_type GAS;
  cooling_system_type ELECTRIC;
  cooling_setpoint 80.0;
  heating_setpoint 60.0;
  object ZIPload { // responsive
    schedule_skew -2615;
    base_power responsive_loads*1.05;
    heatgain_fraction 0.90;
    impedance_pf 1.00;
    current_pf 1.00;
    power_pf 1.00;
    impedance_fraction 0.20;
    current_fraction 0.40;
    power_fraction 0.40;
  };
  object ZIPload { // unresponsive
    schedule_skew -2615;
    base_power unresponsive_loads*1.50;
    heatgain_fraction 0.90;
    impedance_pf 1.00;
    current_pf 1.00;
    power_pf 1.00;
    impedance_fraction 0.20;
    current_fraction 0.40;
    power_fraction 0.40;
  };
  object waterheater {
    name Fdr1_Houses_A_wh_20;
    schedule_skew 4778;
    heating_element_capacity 5.0 kW;
    thermostat_deadband 5.3;
    location INSIDE;
    tank_diameter 1.5;
    tank_UA 3.6;
    water_demand large_6*0.99;
    tank_volume 50;
    tank_setpoint 119.7;
    object metrics_collector {
      interval 300;
    };
  };
  object metrics_collector {
    interval 300;
  };
}
object triplex_line {
  name Fdr1_Houses_A_tpx_21;
  from Fdr1_Houses_A;
  to Fdr1_Houses_A_mtr_21;
  phases AS;
  length 30;
  configuration Fdr1_tpx_config;
}
object triplex_meter {
  name Fdr1_Houses_A_mtr_21;
  phases AS;
  meter_power_consumption 1+7j;
  bill_mode TIERED;
  price 0.1020;
  monthly_fee 13.00;
  bill_day 1;
  first_tier_energy 500.0;
  first_tier_price 0.117013;
  second_tier_energy 1000.0;
  second_tier_price 0.122513;
  nominal_voltage 120.0;
  voltage_1 120.0+0.0j;
  voltage_2 120.0+0.0j;
  object metrics_collector {
    interval 300;
  };
}
object triplex_meter {
  name Fdr1_Houses_A_mhse_21;
  parent Fdr1_Houses_A_mtr_21;
  phases AS;
  nominal_voltage 120.0;
}
object house {
  name Fdr1_Houses_A_hse_21;
  parent Fdr1_Houses_A_mhse_21;
  groupid SINGLE_FAMILY;
  // thermal_integrity_level VERY_GOOD;
  schedule_skew -982;
  floor_area 3077;
  number_of_stories 2;
  ceiling_height 9;
  over_sizing_factor 0.3086;
  Rroof 53.27;
  Rwall 32.48;
  Rfloor 28.85;
  glazing_layers 3;
  glass_type 2;
  glazing_treatment 2;
  window_frame 4;
  Rdoors 12.74;
  airchange_per_hour 0.21;
  cooling_COP 3.5;
  air_temperature 70.74;
  mass_temperature 70.74;
  total_thermal_mass_per_floor_area 2.847;
  breaker_amps 1000;
  hvac_breaker_rating 1000;
  heating_system_type GAS;
  cooling_system_type ELECTRIC;
  cooling_setpoint 80.0;
  heating_setpoint 60.0;
  object ZIPload { // responsive
    schedule_skew -982;
    base_power responsive_loads*1.20;
    heatgain_fraction 0.90;
    impedance_pf 1.00;
    current_pf 1.00;
    power_pf 1.00;
    impedance_fraction 0.20;
    current_fraction 0.40;
    power_fraction 0.40;
  };
  object ZIPload { // unresponsive
    schedule_skew -982;
    base_power unresponsive_loads*1.36;
    heatgain_fraction 0.90;
    impedance_pf 1.00;
    current_pf 1.00;
    power_pf 1.00;
    impedance_fraction 0.20;
    current_fraction 0.40;
    power_fraction 0.40;
  };
  object metrics_collector {
    interval 300;
  };
}
object triplex_line {
  name Fdr1_Houses_A_tpx_22;
  from Fdr1_Houses_A;
  to Fdr1_Houses_A_mtr_22;
  phases AS;
  length 30;
  configuration Fdr1_tpx_config;
}
object triplex_meter {
  name Fdr1_Houses_A_mtr_22;
  phases AS;
  meter_power_consumption 1+7j;
  bill_mode TIERED;
  price 0.1020;
  monthly_fee 13.00;
  bill_day 1;
  first_tier_energy 500.0;
  first_tier_price 0.117013;
  second_tier_energy 1000.0;
  second_tier_price 0.122513;
  nominal_voltage 120.0;
  voltage_1 120.0+0.0j;
  voltage_2 120.0+0.0j;
  object metrics_collector {
    interval 300;
  };
}
object triplex_meter {
  name Fdr1_Houses_A_mhse_22;
  parent Fdr1_Houses_A_mtr_22;
  phases AS;
  nominal_voltage 120.0;
}
object house {
  name Fdr1_Houses_A_hse_22;
  parent Fdr1_Houses_A_mhse_22;
  groupid SINGLE_FAMILY;
  // thermal_integrity_level VERY_GOOD;
  schedule_skew -2550;
  floor_area 2704;
  number_of_stories 1;
  ceiling_height 8;
  over_sizing_factor 0.3571;
  Rroof 56.31;
  Rwall 26.79;
  Rfloor 26.91;
  glazing_layers 3;
  glass_type 2;
  glazing_treatment 2;
  window_frame 4;
  Rdoors 9.90;
  airchange_per_hour 0.25;
  cooling_COP 3.4;
  air_temperature 68.16;
  mass_temperature 68.16;
  total_thermal_mass_per_floor_area 3.460;
  breaker_amps 1000;
  hvac_breaker_rating 1000;
  heating_system_type GAS;
  cooling_system_type ELECTRIC;
  cooling_setpoint 80.0;
  heating_setpoint 60.0;
  object ZIPload { // responsive
    schedule_skew -2550;
    base_power responsive_loads*1.23;
    heatgain_fraction 0.90;
    impedance_pf 1.00;
    current_pf 1.00;
    power_pf 1.00;
    impedance_fraction 0.20;
    current_fraction 0.40;
    power_fraction 0.40;
  };
  object ZIPload { // unresponsive
    schedule_skew -2550;
    base_power unresponsive_loads*1.08;
    heatgain_fraction 0.90;
    impedance_pf 1.00;
    current_pf 1.00;
    power_pf 1.00;
    impedance_fraction 0.20;
    current_fraction 0.40;
    power_fraction 0.40;
  };
  object waterheater {
    name Fdr1_Houses_A_wh_22;
    schedule_skew 1929;
    heating_element_capacity 5.0 kW;
    thermostat_deadband 5.5;
    location INSIDE;
    tank_diameter 1.5;
    tank_UA 3.5;
    water_demand large_5*0.96;
    tank_volume 50;
    waterheater_model MULTILAYER;
    discrete_step_size 60.0;
    lower_tank_setpoint 114.8;
    upper_tank_setpoint 124.8;
    T_mixing_valve 119.8;
    object metrics_collector {
      interval 300;
    };
  };
  object metrics_collector {
    interval 300;
  };
}
object triplex_line {
  name Fdr1_Houses_A_tpx_23;
  from Fdr1_Houses_A;
  to Fdr1_Houses_A_mtr_23;
  phases AS;
  length 30;
  configuration Fdr1_tpx_config;
}
object triplex_meter {
  name Fdr1_Houses_A_mtr_23;
  phases AS;
  meter_power_consumption 1+7j;
  bill_mode TIERED;
  price 0.1020;
  monthly_fee 13.00;
  bill_day 1;
  first_tier_energy 500.0;
  first_tier_price 0.117013;
  second_tier_energy 1000.0;
  second_tier_price 0.122513;
  nominal_voltage 120.0;
  voltage_1 120.0+0.0j;
  voltage_2 120.0+0.0j;
  object metrics_collector {
    interval 300;
  };
}
object triplex_meter {
  name Fdr1_Houses_A_mhse_23;
  parent Fdr1_Houses_A_mtr_23;
  phases AS;
  nominal_voltage 120.0;
}
object house {
  name Fdr1_Houses_A_hse_23;
  parent Fdr1_Houses_A_mhse_23;
  groupid SINGLE_FAMILY;
  // thermal_integrity_level VERY_GOOD;
  schedule_skew 2401;
  floor_area 2941;
  number_of_stories 2;
  ceiling_height 8;
  over_sizing_factor 0.3425;
  Rroof 49.05;
  Rwall 22.69;
  Rfloor 24.69;
  glazing_layers 3;
  glass_type 2;
  glazing_treatment 2;
  window_frame 4;
  Rdoors 9.15;
  airchange_per_hour 0.25;
  cooling_COP 3.5;
  air_temperature 71.02;
  mass_temperature 71.02;
  total_thermal_mass_per_floor_area 2.548;
  breaker_amps 1000;
  hvac_breaker_rating 1000;
  heating_system_type GAS;
  cooling_system_type ELECTRIC;
  cooling_setpoint 80.0;
  heating_setpoint 60.0;
  object ZIPload { // responsive
    schedule_skew 2401;
    base_power responsive_loads*1.07;
    heatgain_fraction 0.90;
    impedance_pf 1.00;
    current_pf 1.00;
    power_pf 1.00;
    impedance_fraction 0.20;
    current_fraction 0.40;
    power_fraction 0.40;
  };
  object ZIPload { // unresponsive
    schedule_skew 2401;
    base_power unresponsive_loads*1.17;
    heatgain_fraction 0.90;
    impedance_pf 1.00;
    current_pf 1.00;
    power_pf 1.00;
    impedance_fraction 0.20;
    current_fraction 0.40;
    power_fraction 0.40;
  };
  object waterheater {
    name Fdr1_Houses_A_wh_23;
    schedule_skew 10022;
    heating_element_capacity 5.0 kW;
    thermostat_deadband 4.7;
    location INSIDE;
    tank_diameter 1.5;
    tank_UA 3.0;
    water_demand large_1*0.99;
    tank_volume 40;
    tank_setpoint 121.4;
    object metrics_collector {
      interval 300;
    };
  };
  object metrics_collector {
    interval 300;
  };
}
object triplex_line {
  name Fdr1_Houses_A_tpx_24;
  from Fdr1_Houses_A;
  to Fdr1_Houses_A_mtr_24;
  phases AS;
  length 30;
  configuration Fdr1_tpx_config;
}
object triplex_meter {
  name Fdr1_Houses_A_mtr_24;
  phases AS;
  meter_power_consumption 1+7j;
  bill_mode TIERED;
  price 0.1020;
  monthly_fee 13.00;
  bill_day 1;
  first_tier_energy 500.0;
  first_tier_price 0.117013;
  second_tier_energy 1000.0;
  second_tier_price 0.122513;
  nominal_voltage 120.0;
  voltage_1 120.0+0.0j;
  voltage_2 120.0+0.0j;
  object metrics_collector {
    interval 300;
  };
}
object triplex_meter {
  name Fdr1_Houses_A_mhse_24;
  parent Fdr1_Houses_A_mtr_24;
  phases AS;
  nominal_voltage 120.0;
}
object house {
  name Fdr1_Houses_A_hse_24;
  parent Fdr1_Houses_A_mhse_24;
  groupid SINGLE_FAMILY;
  // thermal_integrity_level VERY_GOOD;
  schedule_skew 2564;
  floor_area 3288;
  number_of_stories 1;
  ceiling_height 8;
  over_sizing_factor 0.2623;
  Rroof 48.63;
  Rwall 26.05;
  Rfloor 27.80;
  glazing_layers 3;
  glass_type 2;
  glazing_treatment 2;
  window_frame 4;
  Rdoors 10.77;
  airchange_per_hour 0.24;
  cooling_COP 3.7;
  air_temperature 69.43;
  mass_temperature 69.43;
  total_thermal_mass_per_floor_area 3.872;
  breaker_amps 1000;
  hvac_breaker_rating 1000;
  heating_system_type GAS;
  cooling_system_type ELECTRIC;
  cooling_setpoint 80.0;
  heating_setpoint 60.0;
  object ZIPload { // responsive
    schedule_skew 2564;
    base_power responsive_loads*1.18;
    heatgain_fraction 0.90;
    impedance_pf 1.00;
    current_pf 1.00;
    power_pf 1.00;
    impedance_fraction 0.20;
    current_fraction 0.40;
    power_fraction 0.40;
  };
  object ZIPload { // unresponsive
    schedule_skew 2564;
    base_power unresponsive_loads*1.50;
    heatgain_fraction 0.90;
    impedance_pf 1.00;
    current_pf 1.00;
    power_pf 1.00;
    impedance_fraction 0.20;
    current_fraction 0.40;
    power_fraction 0.40;
  };
  object waterheater {
    name Fdr1_Houses_A_wh_24;
    schedule_skew -156;
    heating_element_capacity 4.5 kW;
    thermostat_deadband 4.3;
    location INSIDE;
    tank_diameter 1.5;
    tank_UA 2.9;
    water_demand large_6*1.03;
    tank_volume 50;
    tank_setpoint 112.8;
    object metrics_collector {
      interval 300;
    };
  };
  object metrics_collector {
    interval 300;
  };
}
object triplex_line {
  name Fdr1_Houses_A_tpx_25;
  from Fdr1_Houses_A;
  to Fdr1_Houses_A_mtr_25;
  phases AS;
  length 30;
  configuration Fdr1_tpx_config;
}
object triplex_meter {
  name Fdr1_Houses_A_mtr_25;
  phases AS;
  meter_power_consumption 1+7j;
  bill_mode TIERED;
  price 0.1020;
  monthly_fee 13.00;
  bill_day 1;
  first_tier_energy 500.0;
  first_tier_price 0.117013;
  second_tier_energy 1000.0;
  second_tier_price 0.122513;
  nominal_voltage 120.0;
  voltage_1 120.0+0.0j;
  voltage_2 120.0+0.0j;
  object metrics_collector {
    interval 300;
  };
}
object triplex_meter {
  name Fdr1_Houses_A_mhse_25;
  parent Fdr1_Houses_A_mtr_25;
  phases AS;
  nominal_voltage 120.0;
}
object house {
  name Fdr1_Houses_A_hse_25;
  parent Fdr1_Houses_A_mhse_25;
  groupid SINGLE_FAMILY;
  // thermal_integrity_level VERY_GOOD;
  schedule_skew 535;
  floor_area 3419;
  number_of_stories 1;
  ceiling_height 8;
  over_sizing_factor 0.2842;
  Rroof 44.97;
  Rwall 30.88;
  Rfloor 27.77;
  glazing_layers 3;
  glass_type 2;
  glazing_treatment 2;
  window_frame 4;
...